resultados_barras_SIN_IVR.csv
ID_Barra,Tensao_Mag_pu,Tensao_Ang_graus,P_Geracao_pu,Q_Geracao_pu,P_Carga_pu,Q_Carga_pu,Desvio_Tensao_QLIM_pu,Corte_Reativo_VLIM_pu,Falta_Ativa_PLIM_pu
11950,0.6151551356506263,-67.33717940141891,0.0,0.0,0.0,0.0,0.0,-0.02583332230590911,0.004229201688989445
45120,0.6036084635740238,-41.206254549687486,0.0,0.0,0.0,0.0,0.0,0.004289749752452136,-0.0009251561515350369
1703,0.6534227919495212,-45.264975736233254,0.0,0.0,-0.03,0.0,0.0,-0.048076477660383914,0.003217843214286962
7685,0.5942961725432071,-44.08853915342886,0.0,0.0,0.068,0.035,0.0,-0.013405760041522684,0.030209527577177864
3406,0.5958183236494434,-58.22613081105569,0.0,0.0,0.05,0.017,0.0,-0.006488694994684326,0.02428577478083154
47756,0.605284470204334,-53.40746062680788,0.0,0.0,0.0,0.0,0.0,5.0721369533189616e-5,0.003222548425255431
27640,0.6747107644603776,-9.51672745774305,0.0,0.0,0.0,0.0,0.0,-0.0057512340557256654,0.01793443507639165
1090,0.6920796858285442,-13.41747779040302,0.0,0.0,0.0,0.0,0.0,-0.07838906010822422,-0.2272207702631795
43631,0.6283248680522432,-35.922937587339234,0.0,0.0,0.0,0.0,0.0,0.003190766066978371,0.001093541027683527
41511,0.5879242973891202,-60.1990890849706,0.0,0.0,0.0,0.0,0.0,-0.007656810801361696,0.004683759502594197
40789,0.589885371809003,-46.30662274810803,0.0,0.0,0.0,0.0,0.0,0.0024092729574375664,0.0228525675717745
45340,0.6569866077300955,-22.04883868034753,0.0,0.0,0.047,-0.040999999999999995,-0.34330778725910693,-0.018484311344371944,0.00972416597124535
3220,0.6185245582090688,-61.72331212446334,0.0,0.0,0.0,0.0,0.0,-0.03823087957176631,-0.009749792049591002
422,0.6237312649829692,-72.91810506091417,0.0,0.0,0.0,0.0,0.0,-0.2283728295580178,0.34021488971694736
46806,0.5985923098150202,-43.704923095776266,0.0,0.0,0.0,0.0,0.0,0.03613557122960942,0.01836678620859352
4030,0.6105855404894805,-60.474794371997106,0.0,0.0,0.075,0.027999999999999997,0.0,-0.01643862489507552,0.057741553522598285
8060,0.7743332202380725,-24.063257432471126,0.0,0.0,8.0,1.97,0.0,-0.7887210818822352,0.15012267064836726
43893,0.6654454761134266,-41.67963865850631,0.0,0.0,0.0,0.0,0.0,-0.007391029256311608,0.0018046209139725993
8660,0.5772203295496796,-26.646871049804957,0.0,0.0,0.0,0.0,0.0,0.02431622922166679,-0.01610468927488168
47586,0.6842761008032235,-18.835284540951474,0.0,0.0,0.0,0.0,0.0,0.010167480442303482,-0.0028276736899740963
3855,0.6157412253950945,-67.64302406958271,0.0,0.0,0.273,0.079,0.0,-0.034907325945697024,0.0862758681896389
3163,0.6193494421924393,-30.283165437246847,0.0,0.0,-0.021,0.0,0.0,0.0001192518391499497,-0.011837792100451388
9523,0.70863511957916,-33.480750341574684,0.0,0.0,0.0,0.0,0.0,-0.14007338188076693,0.008415742229648426
2989,0.6296190339428535,-43.48828214094075,0.0,0.0,0.001,0.001,0.0,-0.07593058938578229,0.012018168261168659
4357,0.6331710490517372,-44.56691180434915,0.0,0.0,0.0,0.0,0.0,-0.0208061838289122,0.010944967075800366
844,0.6457953109497951,-36.11166906425165,0.0,0.0,0.36699999999999994,0.139,0.0,-0.056150020795910666,0.11739311914664233
59,0.6842463087766635,-33.10185052299948,0.0,0.0,0.0,0.0,0.0,-0.08293715120819156,-0.09052781177909112
41063,0.6701498343768166,-44.87166942289886,0.0,0.0,0.19,0.062,0.0,-0.022094353678160955,0.044452411808705905
43268,0.6980322573240872,-28.921547003815633,0.0,0.0,0.0,0.0,0.0,-0.02222453183365602,0.0008487073669434203
27617,0.608372594505943,-66.80397939268617,0.0,0.0,0.0,0.0,0.0,0.006959150755484254,-0.000595909102756109
9329,0.6005770577192042,-52.746764817799914,0.0,0.0,0.126,0.046,0.0,-0.01772437706633776,0.04281722387295158
79,0.5658167367302177,-52.80317244313986,0.0,0.0,0.0,0.0,0.0,0.2682152210540875,-0.03574193796555147
17639,0.6194711429049187,-25.670485674276073,0.0,0.0,0.0,0.0,0.0,0.0017762813640053569,0.002356426522825728
6803,0.6271888458035917,-41.431670047377864,0.0,0.0,0.0,0.0,0.0,0.03631110694918952,0.005847768540681569
21970,0.6125951463175456,-68.11296816882495,0.0,0.0,0.0,0.0,0.0,-0.027450802948792354,-0.0005461402330797852
2920,0.5985568701311346,-56.98048168807861,0.0,0.0,0.205,0.044000000000000004,0.0,-0.03979286006951446,0.06928794850784471
7654,0.6176153889004069,-60.24862107967134,0.0,0.0,0.034,0.023,0.0,-0.00928764678166432,0.011209984703455605
7438,0.6090786375332808,-60.47412780805466,0.0,0.0,0.665,0.135,0.0,-0.0689194927276128,0.21518805629271065
2783,0.638100192771034,-63.896229148691205,0.0,0.0,0.478,0.011000000000000001,0.0,-0.012747945668370213,0.12873344136454395
7710,0.5536412775575762,-58.85178174398902,0.0,0.0,0.255,0.022000000000000002,0.0,0.012896916818621396,0.0699339165179448
11925,0.6620012635514898,-19.109624979555527,0.0,0.0,0.0,0.0,0.0,-0.010278373007915995,0.007801677190638673
732,0.6155214334885315,-67.63576429656636,0.0,0.0,0.0,0.0,0.0,-0.014969737966838797,0.0107900096428699
8714,0.6640997836244286,-28.62397033049072,0.0,0.0,0.0,0.0,0.0,-0.10644970407444057,-0.18584540806196054
47258,0.6509841724186134,-42.116963227305,0.0,0.0,0.0,0.0,0.0,-0.01801119861851371,0.011749053914975497
42357,0.6862634752577039,-33.62903038015693,0.0,0.0,0.0,0.0,0.0,-0.024190444632076147,-0.015119098445452828
7292,0.7014081506071862,-19.10009000628658,0.0,0.0,0.0,0.0,0.0,0.004962320192257664,-0.0023961634527330787
5978,0.6097083518242199,-35.942524520710535,1.22,0.14965209424320447,0.0,0.0,-0.3988452900006533,0.0,-0.39936691532551205
8918,0.605919602842476,-26.393550504319986,0.0,0.0,0.0,0.0,0.0,0.006055783359165191,-0.024130383155419974
1526,0.6016390749998217,-66.32801791352607,0.0,0.0,0.445,0.10099999999999999,0.0,-0.04707343437488813,0.12136440277519486
6816,0.6839722371660873,-58.727034295470055,0.0,0.0,0.0,0.0,0.0,-0.03167246289055298,0.005852283414457896
436,0.632990693507471,-74.63348425755778,0.0,0.0,0.0,0.0,0.0,-0.16731644888102287,0.35343456785741295
42373,0.6667094990938208,-36.330179793649485,0.0,0.0,0.0,0.0,0.0,0.006494665949451179,-0.0052473057011512
4951,0.7029686658173465,-29.130347268301694,0.0,0.0,0.0,0.0,0.0,0.004448615102136827,0.00038935921821613563
3044,0.610270889667411,-63.427068570298815,0.0,0.0,0.0,0.0,0.0,-0.0274173729533106,0.049044725484750154
9558,0.6498198114820986,-38.14585881996729,0.0,0.0,0.15,0.047,0.0,-0.021029621728157956,0.04163912287342235
3089,0.6071312430946112,-64.2967581146098,0.0,0.0,0.0,0.0,0.0,-0.015636585548301406,0.04976355737806601
43574,0.6244086884920771,-30.38038052030986,0.0,0.0,0.0,0.0,0.0,-0.004151907556300226,0.0026880912423143536
5401,0.6406245211703728,-40.70201484425435,0.0,0.0,0.0,0.0,0.0,-0.10299810423070498,0.0263415559336694
4051,0.6378667205005779,-39.22449394081635,0.0,0.0,0.0,0.0,0.0,-0.05648008758299359,-0.015848815881162395
145,0.5988082201619179,-67.81468145251952,0.0,0.0,0.0,0.0,0.0,-0.007602010676181029,0.03074061392216395
46307,0.7057740824747925,-51.23879409094834,0.0,0.0,0.001,0.001,0.0,-0.0015798294918518627,-0.00023280358780940126
8915,0.5995315114664301,-22.447859268124198,0.0,0.0,0.0,0.0,0.0,0.004689033535088937,-0.02960556761377771
11910,0.6520469020335343,-18.81394872640813,0.0,0.0,0.0,0.0,0.0,0.007703241451727332,-0.012117461468162616
5840,0.6005260859139793,-44.17366039177397,0.0,0.0,0.0,0.0,0.0,0.00712124348565072,0.0007643151338171803
10279,0.6978387581741666,-44.61833339621373,0.0,0.0,0.0,0.0,0.0,-0.021097792387501563,0.004366817860248298
8298,0.716650902359228,-17.11541511932421,0.0,0.0,0.54,0.177,0.0,-0.04693078200099311,0.13084872652323337
46428,0.6373211919533511,-21.653815437576377,0.0,0.0,0.0,0.0,0.0,0.003928230812194573,0.007733747343277886
40759,0.5805299349123911,-68.67796840655757,0.0,0.0,0.0,0.0,0.0,0.03534535675518634,0.04138925814598137
5566,0.7768108913425262,-27.958581212156695,0.0,0.0,0.0,0.0,0.0,0.004023251464167096,0.0023615453180996456
7315,0.6015713254878584,-44.18513040107504,0.0,0.0,0.0,0.0,0.0,0.015392447324056917,0.006565215037945606
158,0.6341959761959125,-62.901771413618704,0.0,0.0,0.0,0.0,0.0,0.20926999422652887,-0.010372001831388273
3140,0.5929553231993722,-38.11887632173379,0.0,0.0,0.209,0.095,0.0,-0.10136293784157069,0.016053301223730495
47122,0.577131204168725,-46.113275457611486,0.0,0.0,-0.002,0.0,0.0,-0.00013998135149521278,0.007283600936738689
1147,0.6584341488167744,-10.390415716229587,0.0,0.0,0.349,0.083,0.0,-0.0006908161741204424,0.0757092724166742
6576,0.6136496280177344,-32.084716756033316,0.0,0.0,0.0,0.0,0.0,-0.024356498563968314,-0.009667395575953804
21908,0.6517236294156177,-16.76965944388325,0.0,0.0,0.0,0.0,0.0,0.020900722356120633,0.0031553744008394028
44875,0.5944260363744431,-59.23419667050416,0.0,0.0,0.0,0.0,0.0,-0.0009873742532052253,0.008699510664782271
10408,0.6419573170240198,-9.89587029415976,3.49,-0.09752968678447964,0.0,0.0,-0.3536505324269647,0.0,-0.47785556243744853
9345,0.6008521896807735,-47.57458389792945,0.0,0.0,0.0,0.0,0.0,0.029966126129234695,0.008530936168893371
6543,0.7324913087258448,-23.74326730510176,0.0,0.0,0.023,-0.017,0.0,0.035974032400536475,0.005955507523963061
5587,0.6662174104980287,-34.39771529805697,0.0,0.0,0.0,0.0,0.0,-0.008617925161630261,0.026976382439678256
48171,0.6039714060494162,-25.356509057731138,0.0,0.0,-0.25239999999999996,0.0908,0.0,-0.026570555785391435,-0.0907661554707944
11646,0.6317466926270919,-22.54597928105927,0.0,0.0,0.0,0.0,0.0,0.025797704028985957,0.031976184581305286
3052,0.6182576151640792,-58.445588602094595,0.0,0.0,0.46,0.159,0.0,-0.05332741368988177,0.123575288141201
22023,0.5604596153191677,-65.83451853295365,0.0,0.0,0.0,0.0,0.0,-0.014298531386024788,-0.0047805260669048985
43110,0.6627175261702086,-63.402485896327946,0.0,0.0,0.0,0.0,0.0,-0.020739386414419476,0.020150510142280864
6696,0.7667925067794616,-32.3287446411879,0.0,0.0,0.0,0.0,0.0,-0.025716542870680703,0.02415480515014259
44040,0.6441328240263879,-34.0781939079193,0.0,0.0,0.0,0.0,0.0,-0.011982072355550029,-4.713396582081675e-6
412,0.6138226284075482,-62.32147705205525,0.0,0.0,0.0,0.0,0.0,-0.022087678701766263,0.025480509397466208
3877,0.5529746182205652,-16.567370819482115,0.0,0.0,0.10300000000000001,-0.009000000000000001,0.0,0.01424360199029456,0.029212633955151425
6001,0.6239970722547823,-48.21875554089442,0.0,0.0,0.0,0.0,0.0,-0.004914406718836753,0.023401580543129585
2748,0.6422280946386438,-66.67669065775813,0.0,0.0,0.0,0.0,0.0,-0.020852735897811434,0.025104772546556298
41924,0.6091942724117502,-78.62646756302237,0.0,0.0,0.331,0.025,0.0,-0.012669147793828384,0.1208725698863842
8495,0.6903280502967848,-23.867676324222632,0.0,0.0,0.0,0.0,0.0,-0.012091108898590539,0.0012641206096434148
6235,0.6565125107737028,-30.804417339723322,0.0,0.0,0.0,0.0,0.0,0.042714451502478344,0.0049689337040464115
10895,0.6593692596183693,-47.09213266538641,0.0,0.0,0.0,0.0,0.0,-0.006296948724406434,0.03272344879023596
4643,0.6325245844028737,-36.50578826551658,0.0,0.0,0.223,0.066,0.0,-2.0720663653702853e-5,0.02322674658569336
4105,0.6122637310331235,-70.39221938460506,0.0,0.0,0.068,0.023,0.0,-0.017841200316956445,0.025860890519147868
43004,0.660770527736162,-37.23785501965366,0.0,0.0,0.0,0.0,0.0,-0.01469041987641035,-0.004904671547695588
44870,0.596353931106873,-58.44644960332095,0.0,0.0,0.0,0.0,0.0,-0.001723148837432378,-0.0005140335026659884
5550,0.700319304164424,-32.17799832274988,0.0,0.0,0.0,0.0,0.0,-0.09712175771157625,-0.09957879027592159
795,0.620782926831275,-31.60200084782027,0.0,0.0,0.13,0.037000000000000005,0.0,-0.0038176054890170794,0.039806726447606945
5321,0.6516752716783368,-35.04703964097194,0.0,0.0,0.0,0.0,0.0,-0.08279168566660534,0.04096500372725179
43019,0.6427539235877977,-65.00961809035411,0.0,0.0,0.0,0.0,0.0,0.011823934826808246,0.023809467405527328
8476,0.6300995489327004,-22.389891763403032,0.0,0.0,0.0,0.0,0.0,-0.021937127844054057,-0.01806997330303105
7647,0.5890169819498584,-54.629010814191446,0.0,0.0,0.0,0.0,0.0,-6.902697448972513e-5,0.0009674254836172431
6764,0.6272103068698972,-36.171621622933635,0.0,0.0,0.0,0.0,0.0,-0.04749897863468437,0.023106875251347813
43553,0.6873967392247572,-19.189430360691293,0.0,0.0,0.0,0.0,0.0,0.01753620016775352,-0.001959612000465282
42279,0.7856567754525299,-29.575980220109848,0.0,0.0,0.0,0.0,0.0,-0.012687087824039399,0.01500121496061271
47664,0.6062697010715327,-64.60935000858228,0.0,0.0,0.0,0.0,0.0,0.005634717261579603,0.01044200388238643
41661,0.610565767117335,-64.37274561306839,0.0,0.0,0.0,0.0,0.0,-0.020762375985856875,0.00469749101376334
41917,0.6208883824451662,-55.31398835805267,0.0,0.0,0.0,0.0,0.0,-0.0016228482331570166,0.0073097639191042766
13164,0.6309028509913308,-26.935181929119235,0.0,0.0,0.0,0.0,0.0,0.026316187108986415,0.012733778115105954
43878,0.6805262893058454,-42.95117001892806,0.0,0.0,0.0,0.0,0.0,-0.043851063148419966,-0.019080403925686357
41024,0.687116909109465,-39.861353261123824,0.0,0.0,0.0,0.0,0.0,-0.02174774789905182,-0.0020374654145948897
1458,0.6107442554115863,-70.36362441324695,0.0,0.0,0.0,0.0,0.0,-0.0060998804406816815,0.028217234055451994
47038,0.6226727830659671,-47.363961285796314,0.0,0.0,0.0,0.0,0.0,-0.0011138564361707344,0.0038293526887955556
47125,0.7274721857288143,-54.63307341098617,0.0,0.0,-0.20199999999999999,-0.011000000000000001,0.0,-0.0002180577926196249,-0.03140568848045022
316,0.6140130788942552,-63.819754296022765,0.0,0.0,0.0,0.0,0.0,-0.024493119608936166,0.02183732262100844
9452,0.6328603970218735,-4.005517001460171,0.05,-0.017033728264163557,0.0,0.0,-0.36496864316830746,0.0,-0.02274632966440293
5305,0.6604638206383612,-24.517177370791263,0.0,0.0,0.0,0.0,0.0,-0.03824399296615251,-0.00733889819845614
11680,0.5813901825136081,-63.8109972074055,0.0,0.0,0.0,0.0,0.0,-0.006885203213602241,0.047696563156199856
4189,0.7020430229229276,-7.583694430092746,0.0,0.0,0.0,0.0,0.0,0.012692754349303476,-0.055740496920442265
7928,0.6448012345635823,-40.71890083757484,0.0,0.0,0.0,0.0,0.0,0.0006732518390386731,0.0005184090494583695
356,0.6013109897084906,-54.386478748671976,0.0,0.0,0.0,0.0,0.0,0.13758470436864445,0.04597314062572194
487,0.6220819437416583,-68.84065254665988,0.0,0.0,0.0,0.0,0.0,-0.12505075100238142,0.1517173087346559
45036,0.6170226808960014,-21.741083218168114,0.0,0.0,0.0,0.0,0.0,-0.0025348949174574904,-0.019345154721984326
1398,0.584447252594141,-69.20708989873489,0.0,0.0,0.457,0.191,0.0,-0.11579865731611405,0.11215299915112809
2129,0.6186817277066532,-44.89004205150213,0.0,0.0,0.0,0.0,0.0,0.004781900039085322,0.014901929663247056
5730,0.6141704519084541,-53.752699352391055,0.0,0.0,0.0,0.0,0.0,-0.07177626450505037,0.02849482194391146
42414,0.6094551889947053,-68.36235196259302,0.0,0.0,0.0,0.0,0.0,-0.015886417559964196,0.0044965743486672675
47846,0.5621709510404913,-76.28112668250883,0.0,0.0,0.0,0.0,0.0,0.011738765560844546,0.003880059034199215
42266,0.7334511812119711,1.8441537896363531,0.0,0.0,0.0,0.0,0.0,0.05681830178960608,-0.015216214315865569
41008,0.6379619883578012,-40.40224020308227,0.0,0.0,0.0,0.0,0.0,-0.0027135326618638197,0.0017249534372547385
44685,0.5734473286901605,-39.27007335122359,0.0,0.0,-0.08184,0.0184,0.0,0.03315272162472731,-0.041194288609433555
46853,0.6173008698224558,-32.13543567859075,0.0,0.0,-0.02,0.0,0.0,-0.0034240874930895654,0.009850406899424702
7876,0.6260840895297171,-23.532489943409182,0.0,0.0,0.0,0.0,0.0,0.002061229795893479,-0.003587332831339614
47689,0.6112803899204495,-44.032591367805956,0.0,0.0,-0.006,0.0,0.0,-0.01925688150820308,0.024616908502501214
10698,0.6864372834313128,-29.778807423054428,0.0,0.0,0.0,0.0,0.0,-0.04475681508029179,-0.04517901662126207
42149,0.6151869034143705,-60.21584002156161,0.0,0.0,0.0,0.0,0.0,0.006151473067980592,0.06058851032773139
5911,0.6035625655717926,-66.54436696284701,0.0,0.0,0.099,0.042,0.0,-0.012394066067148095,0.09648327710748197
5202,0.6267837157396247,-44.613263255892775,0.0,0.0,0.0,0.0,0.0,-0.08280179374089543,0.037892901206051065
47100,0.5199441108448783,-32.4263581613748,0.0,0.0,-0.044000000000000004,0.0,0.0,0.0015733677862424735,-0.022449903074800184
4003,0.6018615774526884,-60.12230034728348,0.0,0.0,0.371,0.14400000000000002,0.0,-0.05607934121770061,0.10451473350369475
8178,0.6250225692503942,-49.75899458047258,0.0,0.0,0.0,0.0,0.0,-0.026192550368582132,0.011118107680689757
46861,0.6417863452672693,-50.91063613287463,0.0,0.0,0.0,0.0,0.0,-0.010918188741185449,0.014266386394708497
6867,0.6119893946658098,-60.67651573446635,0.0,0.0,0.0,0.0,0.0,0.044285497722402124,0.02012043444689026
6898,0.5823104892388999,-49.22617838526598,0.0,0.0,0.0,0.0,0.0,-0.08744749393715737,0.21097660269544907
45314,0.6623340280654364,-28.334598536491544,0.0,0.0,0.0,0.0,0.0,-0.013998611762185812,-0.005408557952438385
47694,0.655503611986452,-56.35289304591724,0.0,0.0,0.0,0.0,0.0,-0.014476152020049485,0.0454846686982643
8296,0.726062834619911,-9.261703227314309,0.0,0.0,0.633,0.05,0.0,0.0041746385580858705,0.1362899818008586
27606,0.6161216014501083,-67.63100046755167,0.0,0.0,0.0,0.0,0.0,-0.008598318657781719,0.0007218832820764246
47264,0.6307803698122806,-50.80151853855669,0.0,0.0,0.0,0.0,0.0,0.11449686283230096,-0.013740986090570525
7584,0.6243770337400556,-37.84730352664891,0.0,0.0,0.0,0.0,0.0,-0.015469022475772112,-0.004970190322520583
42191,0.63493270843216,-50.56710465311051,0.0,0.0,0.0,0.0,0.0,-0.01385107595589315,-0.00034537665712310126
3917,0.5979110111067065,-60.50845711979647,0.0,0.0,0.069,0.015,0.0,-0.006425667231273429,0.025538436804109638
305,0.6323663303039628,-18.205002399742998,3.8,0.15308553350876095,0.0,0.0,-0.35463938466854494,0.0,-0.9498530898704536
42263,0.651544409948329,-44.322430417778236,0.0,0.0,0.0,0.0,0.0,-0.00843208706542681,0.004804823599065592
6990,0.5784491725522736,-87.05151266056187,0.0,0.0,0.0,0.0,0.0,0.031273443298039605,0.0032836461168488716
7754,0.6245877198405088,-37.84777162816602,0.0,0.0,0.0,0.0,0.0,-0.021670608344040165,0.0035107073138183954
1064,0.6515783200054881,-45.67742769284438,0.0,0.0,0.0,0.0,0.0,-0.06082542614065538,0.03536486456499123
44046,0.6502990384072909,-49.84184332439082,0.0,0.0,0.0,0.0,0.0,-0.02001330542410079,0.010370541553956177
42231,0.6500449699275442,-22.554566762374773,0.0,0.0,0.0,0.0,0.0,0.0014612469706234074,-0.014126373379086468
5726,0.6148973239376871,-55.02499507419026,0.0,0.0,0.0,0.0,0.0,-0.02121503003716367,0.004760894333049026
4597,0.6111143964792377,-44.69448120110454,0.0,0.0,0.0,0.0,-0.37794732001469344,0.0,0.012718363950574033
7090,0.49959746703218905,-43.09346636324731,0.0,0.0,0.07200000000000001,0.033,0.0,0.004379244454835154,0.01836682121422914
7476,0.6001855236171192,-74.89155197756838,0.0,0.0,0.0,0.0,0.0,-0.019611769063787112,0.035181011229027684
4513,0.54242649286865,-43.02642688533271,0.0,0.0,0.179,0.040999999999999995,0.0,0.014708890490294084,0.04516670612593045
43534,0.6296947125515586,-43.53669794059682,0.0,0.0,0.0,0.0,0.0,-0.0029286925396273785,0.004326552870721594
321,0.6448841348839386,-24.46316467005665,0.0,0.0,0.015,0.002,0.0,-0.17116284154242187,0.07445679411189185
46639,0.6499299773199125,-31.36572949201818,0.0,0.0,0.0,0.0,0.0,3.7711616257765906e-5,-0.0014975911415651307
4018,0.6109512557918372,-68.1435537005592,0.0,0.0,0.49200000000000005,0.157,0.0,-0.08356411507397443,0.12891646441612425
8250,0.7519054470162139,-2.953021497198227,0.0,0.0,0.0,0.0,0.0,-0.20250195782976538,-0.001032564632653458
45157,0.627718669893655,-50.790993256233925,0.0,0.0,0.0,0.0,0.0,-0.017126192098812443,0.0036811294519173915
248,0.6178849073183307,-31.508329385484203,0.0,0.0,0.0,0.0,0.0,-0.0018464129229067011,-0.018758671632408967
7487,0.5775583359700462,-79.0393757521114,0.0,0.0,0.22399999999999998,0.09,0.0,-0.07916967300690607,0.09396959147192704
3609,0.6109850219784343,-49.555065865903124,0.0,0.0,0.342,0.1,0.0,-0.041480755358991095,0.12104636343297595
41396,0.641471248320867,-43.72866164598438,0.0,0.0,0.0,0.0,0.0,-0.016474607758192584,0.03358670664091496
43515,0.6488705642899822,-38.54311351751607,0.0,0.0,0.0,0.0,0.0,-0.002387004956951098,0.008320509207908685
46918,0.6015572044800416,-62.92007115322926,0.0,0.0,-0.022000000000000002,0.0,0.0,-0.007116405900541135,0.021822049972982323
5477,0.60600427968159,-30.06378113504247,0.0,0.0,0.0,0.0,0.0,0.018216044692877145,-0.01882323257125852
5149,0.6144300530138107,-41.517481091991336,0.0,0.0,0.0,0.0,0.0,-0.005488967031044582,-0.01273808395327374
3971,0.62091331976645,-31.956177929238496,0.0,0.0,0.0,0.0,0.0,0.015138178179479751,-0.009919851654568441
42421,0.5987303748705762,-55.7809542413256,0.0,0.0,0.0,0.0,0.0,-0.0013813196132961903,0.007697045872461914
7513,0.5982930780150906,-53.66029640629101,0.0,0.0,0.07400000000000001,0.027999999999999997,0.0,-0.008626086231392695,0.024133927315317823
4473,1.1015616423224297,-26.72784173240553,0.0,0.0,0.0,0.0,0.0,-0.3908236227641832,-0.21533839812367855
9009,0.6147020835431831,-53.966526001882265,0.0,0.0,0.134,0.046,0.0,-0.018079306813753263,0.043719944988717785
8189,0.6256422096424357,-24.786105327715497,0.0,0.0,0.0,0.0,0.0,0.03351344754403072,0.0013021751298735258
131,0.6360267096216583,-36.56398750341738,0.0,0.0,0.0,0.0,0.0,-0.31932661162683945,-0.6113853344938394
44822,0.6202769950141422,-32.60449979195418,0.0,0.0,0.0,0.0,0.0,-0.04721289070078201,0.015056417543413367
5802,0.6157689844982611,-58.984771084207736,0.0,0.0,0.0,0.0,0.0,-0.06318966923077769,0.13889757456348323
6557,0.793205421957052,-11.003202850532087,0.0,0.0,0.0,0.0,0.0,-0.02858725424387989,0.012070401738924385
6381,0.6168829439450974,-29.09920557592855,0.0,0.0,0.0,0.0,0.0,-0.0031906471326232895,-0.01848609856193454
11656,0.6492724067888093,-20.009589174013723,0.0,0.0,0.0,0.0,0.0,-0.029869430991249238,-0.07880274661645023
43679,0.5866174820235559,-37.07450610746363,0.0,0.0,0.0,0.0,0.0,0.033648474223004515,-0.004580451379488973
1927,0.5134796094547607,-30.02389735603123,0.0,0.0,0.0,0.0,0.0,0.004342056428862765,-0.012425241590106917
10558,0.6400483328048067,-41.318741711731874,0.0,0.0,0.0,0.0,0.0,-0.01849688081603922,0.0006502780515103035
40027,0.6233720419449413,-31.17932573195838,0.0,0.0,0.0,0.0,0.0,0.04586304292754713,-0.010633194805875469
5623,0.7274713366662218,-54.63310678096394,0.0,0.0,2.417,0.8370000000000001,0.0,-0.22306233980573287,0.40648521790660797
4630,0.6055620876696435,-37.246979555419145,0.0,0.0,0.0,0.0,0.0,-0.007357112423156769,0.004948331878751231
...
